LAMMPS (3 Mar 2020)
###############################################################################

# Starting parameters
units      metal
atom_style atomic
dimension  3
boundary   p p p

###############################################################################

# START DO NOT TOUCH
read_data       input.pos
  triclinic box = (0 0 0) to (10.2115 10.2115 10.2115) with tilt (0 0 0)
  reading atoms ...
  100 atoms
include         masses.txt
mass 1 28.085  # Si
pair_style mlip mlip.ini
pair_coeff * *
# END DO NOT TOUCH

###############################################################################

variable    start_temp equal 2000
variable    dT         equal 500
variable    iterations loop  4

timestep    0.001

# Define the trajectories used for a test set

fix         hold all nvt temp 2000 2000 0.1
run         10000
  update every 1 steps, delay 10 steps, check yes
Step Temp E_pair E_mol TotEng Press
0            0   -404.03189            0   -404.03189    722349.05
Loop time of 24.9488 on 16 procs for 10000 steps with 100 atoms

dump        testdump all atom 10000 dump.atom

label       start_loop
variable    t equal 2000-(1-1)*500

fix         hold all nvt temp 2000 2000 0.1
run         10000
Step Temp E_pair E_mol TotEng Press
10000    2204.5255   -407.38685            0   -379.17607    733134.94
Loop time of 25.1405 on 16 procs for 10000 steps with 100 atoms

next        iterations
jump        md_test.in start_loop
variable    t equal 2000-(2-1)*500

fix         hold all nvt temp 1500 1500 0.1
run         10000
Step Temp E_pair E_mol TotEng Press
20000    1934.5098   -399.67586            0   -374.92041    764623.93
Loop time of 24.9627 on 16 procs for 10000 steps with 100 atoms

next        iterations
jump        md_test.in start_loop
variable    t equal 2000-(3-1)*500

fix         hold all nvt temp 1000 1000 0.1
run         10000
Step Temp E_pair E_mol TotEng Press
30000    1514.7445   -411.44266            0   -392.05885    706624.95
Loop time of 25.4535 on 16 procs for 10000 steps with 100 atoms

next        iterations
jump        md_test.in start_loop
variable    t equal 2000-(4-1)*500

fix         hold all nvt temp 500 500 0.1
run         10000
Step Temp E_pair E_mol TotEng Press
40000    1071.8343   -417.65568            0   -403.93968    666638.01
Loop time of 24.8208 on 16 procs for 10000 steps with 100 atoms

next        iterations
jump        md_test.in start_loop
