LAMMPS (3 Mar 2020)
###############################################################################

# Starting parameters
units      metal
atom_style atomic
dimension  3
boundary   p p p

###############################################################################

# START DO NOT TOUCH
read_data       input.pos
  triclinic box = (0 0 0) to (10.2115 10.2115 10.2115) with tilt (0 0 0)
  reading atoms ...
  100 atoms
include         masses.txt
mass 1 28.085  # Si
pair_style mlip mlip.ini
pair_coeff * *
# END DO NOT TOUCH

###############################################################################

variable    start_temp equal 2000
variable    dT         equal 500
variable    iterations loop  4

timestep    0.001

# Define the trajectories used for a test set

fix         hold all nvt temp 2000 2000 0.1
run         10000
  update every 1 steps, delay 10 steps, check yes
Step Temp E_pair E_mol TotEng Press
0            0   -404.62278            0   -404.62278    720116.62
Loop time of 24.888 on 16 procs for 10000 steps with 100 atoms

dump        testdump all atom 10000 dump.atom

label       start_loop
variable    t equal 2000-(1-1)*500

fix         hold all nvt temp 2000 2000 0.1
run         10000
Step Temp E_pair E_mol TotEng Press
10000    2182.0377   -404.31238            0   -376.38938    748143.24
Loop time of 24.4452 on 16 procs for 10000 steps with 100 atoms

next        iterations
jump        md_test.in start_loop
variable    t equal 2000-(2-1)*500

fix         hold all nvt temp 1500 1500 0.1
run         10000
Step Temp E_pair E_mol TotEng Press
20000    2222.5652   -395.42207            0   -366.98045    788653.41
Loop time of 25.207 on 16 procs for 10000 steps with 100 atoms

next        iterations
jump        md_test.in start_loop
variable    t equal 2000-(3-1)*500

fix         hold all nvt temp 1000 1000 0.1
run         10000
Step Temp E_pair E_mol TotEng Press
30000    1592.8825    -411.3341            0   -390.95038    697725.85
Loop time of 25.2983 on 16 procs for 10000 steps with 100 atoms

next        iterations
jump        md_test.in start_loop
variable    t equal 2000-(4-1)*500

fix         hold all nvt temp 500 500 0.1
run         10000
Step Temp E_pair E_mol TotEng Press
40000    1063.9678   -422.81374            0    -409.1984    624122.28
Loop time of 24.7194 on 16 procs for 10000 steps with 100 atoms

next        iterations
jump        md_test.in start_loop
