LAMMPS (3 Mar 2020)
###############################################################################

# Starting parameters
units      metal
atom_style atomic
dimension  3
boundary   p p p

###############################################################################

# START DO NOT TOUCH
read_data       input.pos
  triclinic box = (0 0 0) to (8.10487 8.10487 8.10487) with tilt (0 0 0)
  reading atoms ...
  50 atoms
include         masses.txt
mass 1 28.085
pair_style mlip mlip.ini
pair_coeff * *
# END DO NOT TOUCH

###############################################################################
timestep    0.001
thermo      1000
dump        mydump all atom 10000 dump.atom

fix         hold all nvt temp 2000 2000 0.1
run         100000
  update every 1 steps, delay 10 steps, check yes
Step Temp E_pair E_mol TotEng Press
0            0   -121.80573            0   -121.80573    1446044.9
Averages over the last 51 of 101 rows, steps 50000 to 100000:
Temp E_pair E_mol TotEng Press
2057.51 -197.447 0 -184.415 770720
Loop time of 17.6809 on 16 procs for 100000 steps with 50 atoms
