LAMMPS (3 Mar 2020)
###############################################################################

# Starting parameters
units      metal
atom_style atomic
dimension  3
boundary   p p p

###############################################################################

# START DO NOT TOUCH
read_data       input.pos
  triclinic box = (0 0 0) to (10.2115 10.2115 10.2115) with tilt (0 0 0)
  reading atoms ...
  100 atoms
include         masses.txt
mass 1 28.085  # Si
pair_style mlip mlip.ini
pair_coeff * *
# END DO NOT TOUCH

###############################################################################

variable    start_temp equal 2000
variable    dT         equal 500
variable    iterations loop  4

timestep    0.001

# Define the trajectories used for a test set
dump        testdump all atom 10000 dump.atom

label       start_loop
variable    t equal 2000-(1-1)*500

fix         hold all nvt temp 2000 2000 0.1
run         10000
  update every 1 steps, delay 10 steps, check yes
Step Temp E_pair E_mol TotEng Press
0            0   -404.03189            0   -404.03189    722349.05
Loop time of 720.317 on 1 procs for 10000 steps with 100 atoms

next        iterations
jump        md.in start_loop
variable    t equal 2000-(2-1)*500

fix         hold all nvt temp 1500 1500 0.1
run         10000
Step Temp E_pair E_mol TotEng Press
10000    2114.0579   -401.17023            0   -374.11715    769037.96
Loop time of 731.459 on 1 procs for 10000 steps with 100 atoms

next        iterations
jump        md.in start_loop
variable    t equal 2000-(3-1)*500

fix         hold all nvt temp 1000 1000 0.1
run         10000
Step Temp E_pair E_mol TotEng Press
20000    1782.4795   -408.24408            0   -385.43413    725110.61
Loop time of 738.742 on 1 procs for 10000 steps with 100 atoms

next        iterations
jump        md.in start_loop
variable    t equal 2000-(4-1)*500

fix         hold all nvt temp 500 500 0.1
run         10000
Step Temp E_pair E_mol TotEng Press
30000    1032.1622   -417.57179            0   -404.36346    660973.28
Loop time of 730.099 on 1 procs for 10000 steps with 100 atoms

next        iterations
jump        md.in start_loop
